
 OpenBabel01121310583D

 33 34  0  0  0  0  0  0  0  0999 V2000
   -0.5183    0.9233    0.5184 C   0  0  0  0  0  0  0  0  0  0  0  0
    0.8103    1.0538    0.1287 C   0  0  0  0  0  0  0  0  0  0  0  0
    1.5268   -0.1000   -0.0836 C   0  0  0  0  0  0  0  0  0  0  0  0
    0.8536   -1.3187   -0.0241 C   0  0  0  0  0  0  0  0  0  0  0  0
   -0.5523   -1.3531   -0.0417 C   0  0  0  0  0  0  0  0  0  0  0  0
   -1.2797   -0.1805    0.1535 C   0  0  0  0  0  0  0  0  0  0  0  0
   -2.7832   -0.1529   -0.0649 C   0  0  0  0  0  0  0  0  0  0  0  0
   -3.3432   -1.2316   -0.2722 O   0  0  0  0  0  0  0  0  0  0  0  0
   -3.6451    1.0967   -0.1567 C   0  0  0  0  0  0  0  0  0  0  0  0
   -5.0410    0.9751   -0.3670 C   0  0  0  0  0  0  0  0  0  0  0  0
   -5.8281    2.1344   -0.6019 C   0  0  0  0  0  0  0  0  0  0  0  0
   -5.2930    3.4142   -0.4497 C   0  0  0  0  0  0  0  0  0  0  0  0
   -3.9794    3.5157   -0.0605 C   0  0  0  0  0  0  0  0  0  0  0  0
   -3.1641    2.4056   -0.1138 C   0  0  0  0  0  0  0  0  0  0  0  0
   -1.8963    2.8330   -0.3735 O   0  0  0  0  0  0  0  0  0  0  0  0
   -6.0302    4.5217   -0.7660 O   0  0  0  0  0  0  0  0  0  0  0  0
   -5.3214    5.7635   -0.7087 C   0  0  0  0  0  0  0  0  0  0  0  0
   -7.4984    2.0368   -1.1674 S   0  0  0  0  0  0  0  0  0  0  0  0
   -8.3557    2.6151   -0.1475 O   0  0  0  0  0  0  0  0  0  0  0  0
   -7.5428    2.4784   -2.5402 O   0  0  0  0  0  0  0  0  0  0  0  0
   -7.8754    0.4705   -1.2042 O   0  0  0  0  0  0  0  0  0  0  0  0
   -0.9430    1.7462    1.0781 H   0  0  0  0  0  0  0  0  0  0  0  0
    1.2813    2.0342    0.0914 H   0  0  0  0  0  0  0  0  0  0  0  0
    2.6053   -0.0433   -0.1981 H   0  0  0  0  0  0  0  0  0  0  0  0
    1.4245   -2.2400    0.0265 H   0  0  0  0  0  0  0  0  0  0  0  0
   -1.0655   -2.3043   -0.1611 H   0  0  0  0  0  0  0  0  0  0  0  0
   -5.5046   -0.0114   -0.4168 H   0  0  0  0  0  0  0  0  0  0  0  0
   -3.4823    4.4639    0.1088 H   0  0  0  0  0  0  0  0  0  0  0  0
   -1.5112    2.2060   -1.0092 H   0  0  0  0  0  0  0  0  0  0  0  0
   -5.0018    5.9658    0.3205 H   0  0  0  0  0  0  0  0  0  0  0  0
   -4.4587    5.7704   -1.3908 H   0  0  0  0  0  0  0  0  0  0  0  0
   -5.9930    6.5654   -1.0142 H   0  0  0  0  0  0  0  0  0  0  0  0
   -8.8022    0.4079   -1.5190 H   0  0  0  0  0  0  0  0  0  0  0  0
  1  2  2  0  0  0  0
  1  6  1  0  0  0  0
  1 22  1  0  0  0  0
  2  3  1  0  0  0  0
  2 23  1  0  0  0  0
  3  4  2  0  0  0  0
  3 24  1  0  0  0  0
  4  5  1  0  0  0  0
  4 25  1  0  0  0  0
  5  6  2  0  0  0  0
  5 26  1  0  0  0  0
  6  7  1  0  0  0  0
  7  8  2  0  0  0  0
  7  9  1  0  0  0  0
  9 10  2  0  0  0  0
  9 14  1  0  0  0  0
 10 11  1  0  0  0  0
 10 27  1  0  0  0  0
 11 12  2  0  0  0  0
 11 18  1  0  0  0  0
 12 13  1  0  0  0  0
 12 16  1  0  0  0  0
 13 14  2  0  0  0  0
 13 28  1  0  0  0  0
 14 15  1  0  0  0  0
 15 29  1  0  0  0  0
 16 17  1  0  0  0  0
 17 30  1  0  0  0  0
 17 31  1  0  0  0  0
 17 32  1  0  0  0  0
 18 19  2  0  0  0  0
 18 20  2  0  0  0  0
 18 21  1  0  0  0  0
 21 33  1  0  0  0  0
M  END
